22

N      12.472812240588578     14.427007157938130     12.145909634156276
C      11.991309529358121     13.769194304137805     13.324648670348935
C      12.372788109094035     12.277291867717180     13.308062756032164
N      11.967232241011931     11.678923929854680     12.061461487852592
C      12.383171404750762     12.347839861795046     10.856769713668182
C      12.002979395640535     13.839182606325927     10.925359368355632
C      12.369844118371780     15.868638597100412     12.187315143326694
C      11.016521178230370     10.602215194719609     12.021587218722924
H      10.898673727453334     13.845623532933573     13.441373209500066
H      12.454049054852018     14.214792206703958     14.209704724405583
H      11.901855401941756     11.740180487655337     14.130024397943689
H      13.459804746951651     12.178021555388035     13.383346986528911
H      12.476483726106245     14.334866954133815     10.073821754848215
H      10.911918107017053     13.924864167150139     10.799006179466437
H      13.471152039825004     12.254135969677048     10.788379164814467
H      11.923324816464433     11.859189993051782      9.998100826055273
H      12.855434675315655     16.244858512399244     13.089014052349974
H      11.324366255733418     16.213124045435602     12.186566463882494
H      12.872242785892649     16.293955198725861     11.317514998381958
H      11.098271889545373     10.001709943448603     12.926396314336641
H      11.176969557809102      9.999658700096214     11.127202556643114
H      10.004895568624173     11.046940238098799     11.974695299314842
