7

F -0.0000000000  -0.0000000000  -1.5495255271
F  1.5495255271   0.0000000000  -0.0000000000
F -1.5495255271  -0.0000000000  -0.0000000000
F  0.0000000000   1.5495255271  -0.0000000000
F  0.0000000000  -1.5495255271   0.0000000000
F -0.0000000000   0.0000000000   1.5495255271
S  0.0000000000   0.0000000000   0.0000000000